Circuit: * C:\Users\User\Desktop\Chua_TL\tu-delft\Q1\analog-circuit-design-fundamentals-fa21\hw\hw05\spice\q4-2\trans\diff-amp.asc

Ignoring BSIM parameter XL
Ignoring BSIM parameter XW
Ignoring BSIM parameter ACM
Ignoring BSIM parameter LDIF
Ignoring BSIM parameter HDIF
Ignoring BSIM parameter TLEV
Ignoring BSIM parameter TLEVC
Ignoring BSIM parameter CALCACM
Ignoring BSIM parameter SFVTFLAGl
Ignoring BSIM parameter XL
Ignoring BSIM parameter XW
Ignoring BSIM parameter ACM
Ignoring BSIM parameter LDIF
Ignoring BSIM parameter HDIF
Ignoring BSIM parameter TLEV
Ignoring BSIM parameter TLEVC
Ignoring BSIM parameter CALCACM
Ignoring BSIM parameter SFVTFLAGl
WARNING: Less than two connections to node VOUT.  This node is used by E2.
Warning: Pd = 0 is less than W.
Warning: Ps = 0 is less than W.
Warning: Pd = 0 is less than W.
Warning: Ps = 0 is less than W.
Warning: Pd = 0 is less than W.
Warning: Ps = 0 is less than W.
Direct Newton iteration for .op point succeeded.

Date: Sun Oct 17 01:50:24 2021
Total elapsed time: 0.113 seconds.

tnom = 27
temp = 27
method = modified trap
totiter = 655
traniter = 610
tranpoints = 206
accept = 128
rejected = 78
matrix size = 14
fillins = 0
solver = Normal
Matrix Compiler1: 510 bytes object code size  0.1/0.1/[0.1]
Matrix Compiler2: 1020 bytes object code size  0.1/0.2/[0.1]

